data_none

_audit_creation_method generated by ABACUS

_cell_length_a 13.2294
_cell_length_b 13.2294
_cell_length_c 13.2294
_cell_angle_alpha 90
_cell_angle_beta 90
_cell_angle_gamma 90

loop_
_symmetry_equiv_pos_as_xyz
'x,y,z'
loop_
_atom_site_label
_atom_site_fract_x
_atom_site_fract_y
_atom_site_fract_z
Si 0 0 0
